8
Mol -266.227622822 0.207420473719
C   3.44494859  -1.02238720   3.30281044  -4.20655344   4.52450845  -1.50675094
C   2.53945835  -1.44370617   4.49257784   3.21403154  -0.22156093   2.10879809
H   4.13494168  -1.75664726   2.97037284   1.91889753  -0.20567182   0.58533883
H   2.73481312  -0.99827302   2.44769697   0.62813105   0.16957156   0.42638104
H   3.71919545   0.15029697   3.40043147   0.34746023  -4.64005125  -0.06369674
H   1.97482471  -2.38651844   4.33465320   0.25218026   1.32574794   0.12561473
H   2.00390698  -0.58483445   4.84625502  -1.73691447   0.14949381  -0.83275900
H   3.20131901  -1.53603881   5.38163126  -0.41723270  -1.10203772  -0.84292607
